ModelTransf-Tool/Prototype/examples/icelandic/Iceland_modified_PF_solved.raw
0,   100.00, 33, 0, 1, 50.00     / PSS(R)E-33.4    TUE, JUL 06 2021   9:47
LANDSNET
ISLAND-2010
   801,'ESK2 CABLE  ',  66.0000,1,   1,   1,   1,0.96698, -23.6605,1.10000,0.90000,1.10000,0.90000
  1009,'BUR CABLE   ',  66.0000,1,   1,   1,   1,0.97987,  -4.5850,1.10000,0.90000,1.10000,0.90000
  1010,'BURFELL     ', 220.0000,1,   1,   1,   1,1.04898,  -8.8442,1.10000,0.90000,1.10000,0.90000
  1011,'BURFE-12    ',  13.8000,2,   1,   4,   1,0.99000,  -1.5271,1.10000,0.90000,1.10000,0.90000
  1012,'BURFE-34    ',  13.8000,2,   1,   4,   1,0.99000,  -1.6027,1.10000,0.90000,1.10000,0.90000
  1013,'BURFE-56    ',  13.8000,2,   1,   4,   1,1.06500,  -3.8402,1.10000,0.90000,1.10000,0.90000
  1014,'BUR66SP5    ',  66.0000,1,   1,   1,   1,0.98007,  -4.5522,1.10000,0.90000,1.10000,0.90000
  1015,'BUR11SP5    ',  11.0000,1,   1,   1,   1,0.98515,  -2.6478,1.10000,0.90000,1.10000,0.90000
  1017,'BUR66SP4    ',  66.0000,1,   1,   1,   1,0.98007,  -4.5522,1.10000,0.90000,1.10000,0.90000
  1018,'BUR11SP4    ',  11.0000,1,   1,   1,   1,0.98463,  -2.7859,1.10000,0.90000,1.10000,0.90000
  1020,'SIGALDA     ', 220.0000,1,   1,   1,   1,1.06313,  -6.5530,1.10000,0.90000,1.10000,0.90000
  1021,'SIGALD12    ',  10.5000,2,   1,   4,   1,0.98000,  -0.3046,1.10000,0.90000,1.10000,0.90000
  1022,'SIGALD22    ',  10.5000,2,   1,   4,   1,0.98000,  -0.3046,1.10000,0.90000,1.10000,0.90000
  1023,'SIGALD32    ',  10.5000,2,   1,   4,   1,0.98000,  -0.3046,1.10000,0.90000,1.10000,0.90000
  1024,'SIGALDA6    ', 132.0000,1,   1,   1,   1,1.06521,  -9.3391,1.10000,0.90000,1.10000,0.90000
  1025,'SIGHR11     ',  11.0000,1,   1,   1,   1,1.06353,  -7.6920,1.10000,0.90000,1.10000,0.90000
  1026,'SIG_TEINASPL', 220.0000,1,   1,   1,   1,1.06313,  -6.5530,1.10000,0.90000,1.10000,0.90000
  1030,'HRAUNEY     ', 220.0000,1,   1,   1,   1,1.06173,  -6.6600,1.10000,0.90000,1.10000,0.90000
  1031,'HRAUNE12    ',  13.8000,3,   1,   4,   1,1.00000,   0.0000,1.10000,0.90000,1.10000,0.90000
  1032,'HRAUNE22    ',  13.8000,3,   1,   4,   1,1.00000,   0.0000,1.10000,0.90000,1.10000,0.90000
  1033,'HRAUNE32    ',  13.8000,3,   1,   4,   1,1.00000,   0.0000,1.10000,0.90000,1.10000,0.90000
  1040,'VATNSFEL    ', 220.0000,1,   1,   1,   1,1.06511,  -6.3717,1.10000,0.90000,1.10000,0.90000
  1041,'VATN-V1     ',  11.0000,2,   1,   4,   1,1.01000,  -1.0699,1.10000,0.90000,1.10000,0.90000
  1042,'VATN-V2     ',  11.0000,2,   1,   4,   1,1.01000,  -1.0699,1.10000,0.90000,1.10000,0.90000
  1050,'SULTARTA    ', 220.0000,1,   1,   1,   1,1.04651,  -8.9748,1.10000,0.90000,1.10000,0.90000
  1051,'SULT-V1     ',  11.0000,2,   1,   4,   1,1.05400,  -3.2921,1.10000,0.90000,1.10000,0.90000
  1052,'SULT-V2     ',  11.0000,2,   1,   4,   1,1.05400,  -4.1085,1.10000,0.90000,1.10000,0.90000
  1060,'BUDARHALS   ', 220.0000,1,   1,   1,   1,1.05002,  -6.9194,1.10000,0.90000,1.10000,0.90000
  1061,'BUD_V1      ',  11.0000,2,   1,   1,   1,1.05000,  -6.9170,1.10000,0.90000,1.10000,0.90000
  1062,'BUD_V2      ',  11.0000,2,   1,   1,   1,1.05000,  -6.9170,1.10000,0.90000,1.10000,0.90000
  1065,'LANGALDA    ', 220.0000,1,   1,   1,   1,1.05305,  -7.6020,1.10000,0.90000,1.10000,0.90000
  1078,'FLU_33KV    ',  33.0000,1,   1,   1,   1,0.92689, -11.2300,1.10000,0.90000,1.10000,0.90000
  1079,'HLA CABLE   ',  66.0000,1,   1,   1,   1,0.93317, -10.7599,1.10000,0.90000,1.10000,0.90000
  1080,'HVOLSVOLLUR ',  66.0000,1,   1,   2,   1,0.93244, -11.0079,1.10000,0.90000,1.10000,0.90000
  1081,'FLUDIR      ',  66.0000,1,   1,   2,   1,0.94370,  -8.1089,1.10000,0.90000,1.10000,0.90000
  1082,'HELLA       ',  66.0000,1,   1,   2,   1,0.93314, -10.8060,1.10000,0.90000,1.10000,0.90000
  1083,'FLU CABLE   ',  66.0000,1,   1,   1,   1,0.94375,  -8.0994,1.10000,0.90000,1.10000,0.90000
  1084,'FLU2 CABLE  ',  66.0000,1,   1,   1,   1,0.94369,  -8.1184,1.10000,0.90000,1.10000,0.90000
  1085,'FLU_11KV    ',  11.0000,1,   1,   1,   1,0.93071, -10.5144,1.10000,0.90000,1.10000,0.90000
  1086,'HELLA_11KV  ',  11.0000,1,   1,   1,   1,0.92277, -14.4883,1.10000,0.90000,1.10000,0.90000
  1087,'HVOLSV_11KV ',  11.0000,1,   1,   1,   1,0.96609, -12.8532,1.10000,0.90000,1.10000,0.90000
  1088,'HVOLSV_DUMMY',  19.0000,1,   1,   1,   1,0.95266, -12.0961,1.10000,0.90000,1.10000,0.90000
  1089,'RIMCABLE    ',  66.0000,1,   1,   1,   1,0.91184, -14.3352,1.10000,0.90000,1.10000,0.90000
  1090,'RIMAKOT     ',  66.0000,1,   1,   1,   1,0.91178, -14.3438,1.10000,0.90000,1.10000,0.90000
  1091,'RIMAKOT     ',  33.0000,1,   1,   1,   1,0.96164, -20.1156,1.10000,0.90000,1.10000,0.90000
  1092,'VEM_FORGANGS',  33.0000,1,   1,   1,   1,0.94865, -22.0953,1.10000,0.90000,1.10000,0.90000
  1093,'VM3_JARDSTR1',  33.0000,1,   1,   1,   1,0.95950, -20.5047,1.10000,0.90000,1.10000,0.90000
  1094,'VM3_JARDSTR2',  33.0000,1,   1,   1,   1,0.94934, -21.9823,1.10000,0.90000,1.10000,0.90000
  1095,'VEM_BRAEDSLA',  33.0000,1,   1,   1,   1,0.94864, -22.1323,1.10000,0.90000,1.10000,0.90000
  1096,'VM1_RIM_ENDI',  33.0000,1,   1,   1,   1,0.95997, -20.4340,1.10000,0.90000,1.10000,0.90000
  1097,'VM1_VEM_ENDI',  33.0000,1,   1,   1,   1,0.94969, -21.9850,1.10000,0.90000,1.10000,0.90000
  1098,'VEM_KETILL  ',  33.0000,1,   1,   1,   1,0.94824, -22.1618,1.10000,0.90000,1.10000,0.90000
  1100,'IRAFOSS2    ', 220.0000,1,   1,   1,   1,1.03276, -12.6363,1.10000,0.90000,1.10000,0.90000
  1110,'IRAFOSS     ', 132.0000,1,   1,   1,   1,1.03910, -13.5637,1.10000,0.90000,1.10000,0.90000
  1111,'IRAFO-12    ',  10.5000,2,   1,   4,   1,1.01000,  -9.7527,1.10000,0.90000,1.10000,0.90000
  1112,'IRAFO-22    ',  10.5000,2,   1,   4,   1,1.01000, -11.5330,1.10000,0.90000,1.10000,0.90000
  1113,'IRAFO-32    ',  10.5000,2,   1,   4,   1,1.01000, -11.7244,1.10000,0.90000,1.10000,0.90000
  1114,'IRAFOSS5    ',  66.0000,1,   1,   1,   1,1.02807, -13.6242,1.10000,0.90000,1.10000,0.90000
  1119,'SP5DELTA    ',  11.0000,1,   1,   4,   1,1.03507, -12.9924,1.10000,0.90000,1.10000,0.90000
  1120,'STEINKA     ',  66.0000,1,   1,   1,   1,1.03172, -13.3943,1.10000,0.90000,1.10000,0.90000
  1121,'STEING1     ',   6.6000,2,   1,   4,   1,1.05000, -11.2266,1.10000,0.90000,1.10000,0.90000
  1122,'STEING2     ',   6.6000,2,   1,   4,   1,1.05000, -11.2409,1.10000,0.90000,1.10000,0.90000
  1126,'ST-SPOLD    ',   6.6000,1,   1,   4,   1,1.03172, -13.3943,1.10000,0.90000,1.10000,0.90000
  1130,'LJOSIFOSS   ',  66.0000,1,   1,   1,   1,1.02785, -13.6209,1.10000,0.90000,1.10000,0.90000
  1131,'LJOS-VEL    ',   6.6000,2,   1,   4,   1,1.03000, -11.0918,1.10000,0.90000,1.10000,0.90000
  1134,'STN1        ',  11.0000,1,   1,   4,   1,0.99922, -17.6655,1.10000,0.90000,1.10000,0.90000
  1136,'HVERAGERDI  ',  66.0000,1,   1,   2,   1,1.02038, -14.1135,1.10000,0.90000,1.10000,0.90000
  1137,'HVERAG_11KV ',  11.0000,1,   1,   1,   1,1.01179, -15.5717,1.10000,0.90000,1.10000,0.90000
  1139,'KOLVID_B    ', 220.0000,1,   2,   1,   1,1.03176, -11.7702,1.10000,0.90000,1.10000,0.90000
  1140,'KOLVID_A    ', 220.0000,1,   2,   1,   1,1.03176, -11.7702,1.10000,0.90000,1.10000,0.90000
  1141,'HELLIS_V1   ',  11.0000,2,   2,   3,   1,1.04000,  -6.0199,1.10000,0.90000,1.10000,0.90000
  1142,'HELLIS_V2   ',  11.0000,2,   2,   3,   1,1.04000,  -6.0199,1.10000,0.90000,1.10000,0.90000
  1143,'HELLIS_V11  ',  11.0000,2,   2,   3,   1,1.04000,  -8.2195,1.10000,0.90000,1.10000,0.90000
  1144,'HELLIS_V3   ',  11.0000,2,   2,   3,   1,1.04000,  -6.2950,1.10000,0.90000,1.10000,0.90000
  1145,'HELLIS_V4   ',  11.0000,2,   2,   3,   1,1.04000,  -6.2950,1.10000,0.90000,1.10000,0.90000
  1146,'HELLIS_V5   ',  11.0000,2,   2,   3,   1,1.04000,  -5.6208,1.10000,0.90000,1.10000,0.90000
  1147,'HELLIS_V6   ',  11.0000,2,   2,   3,   1,1.04000,  -5.6208,1.10000,0.90000,1.10000,0.90000
  1148,'THORLAK_11KV',  11.0000,1,   1,   1,   1,1.00855, -15.7126,1.10000,0.90000,1.10000,0.90000
  1149,'THORLAKHOFN ',  66.0000,1,   2,   1,   1,1.01602, -14.3991,1.10000,0.90000,1.10000,0.90000
  1150,'SEL_SKERDANL',  66.0000,1,   2,   1,   1,1.00187, -14.8810,1.10000,0.90000,1.10000,0.90000
  1151,'SEL_FORGANGS',  33.0000,1,   2,   2,   1,0.93633, -23.5260,1.10000,0.90000,1.10000,0.90000
  1200,'NESJAV      ', 132.0000,1,   2,   1,   1,1.03038, -15.0812,1.10000,0.90000,1.10000,0.90000
  1201,'NESV-VEL 1  ',  11.0000,2,   2,   3,   1,1.03000, -14.1737,1.10000,0.90000,1.10000,0.90000
  1202,'NESV-VEL 2  ',  11.0000,2,   2,   3,   1,1.03000, -14.1571,1.10000,0.90000,1.10000,0.90000
  1203,'NESV-VEL 3  ',  11.0000,2,   2,   3,   1,1.03000, -14.1280,1.10000,0.90000,1.10000,0.90000
  1204,'NESV-VEL 4  ',  11.0000,2,   2,   3,   1,1.03000, -14.0907,1.10000,0.90000,1.10000,0.90000
  1210,'GRAFNING    ', 132.0000,1,   2,   1,   1,1.03016, -15.1159,1.10000,0.90000,1.10000,0.90000
  1220,'BRINGUR     ', 132.0000,1,   2,   1,   1,1.02710, -15.7945,1.10000,0.90000,1.10000,0.90000
  2010,'GEITHALS    ', 220.0000,1,   2,   1,   1,1.02242, -14.7574,1.10000,0.90000,1.10000,0.90000
  2011,'GE-132      ', 132.0000,1,   2,   1,   1,1.02624, -15.6640,1.10000,0.90000,1.10000,0.90000
  2012,'GE-11SP1    ',  11.0000,1,   2,   1,   1,1.02453, -15.2358,1.10000,0.90000,1.10000,0.90000
  2013,'GE-11SP2    ',  11.0000,1,   2,   1,   1,1.02453, -15.2358,1.10000,0.90000,1.10000,0.90000
  2017,'RR-A5       ', 132.0000,1,   2,   1,   1,1.02284, -16.0103,1.10000,0.90000,1.10000,0.90000
  2018,'RR-A12      ', 132.0000,1,   2,   1,   1,1.02431, -15.8591,1.10000,0.90000,1.10000,0.90000
  2022,'IS1         ', 220.0000,1,   2,  10,   1,1.01721, -15.9105,1.10000,0.90000,1.10000,0.90000
  2023,'IS2         ', 220.0000,1,   2,  10,   1,1.01721, -15.9105,1.10000,0.90000,1.10000,0.90000
  2030,'KORPA       ', 132.0000,1,   2,   1,   1,1.02532, -15.9629,1.10000,0.90000,1.10000,0.90000
  2050,'HAMR        ', 220.0000,1,   2,   1,   1,1.01878, -15.6287,1.10000,0.90000,1.10000,0.90000
  2051,'HAM         ', 132.0000,1,   2,   1,   1,1.02599, -15.6497,1.10000,0.90000,1.10000,0.90000
  2052,'HAM-DSP1    ',  11.0000,1,   2,   1,   1,1.02282, -15.6396,1.10000,0.90000,1.10000,0.90000
  2053,'HAM-DSP2    ',  11.0000,1,   2,   1,   1,1.02130, -15.6378,1.10000,0.90000,1.10000,0.90000
  2061,'RH          ', 132.0000,1,   2,   1,   1,1.02546, -15.6954,1.10000,0.90000,1.10000,0.90000
  2062,'RH-11       ',  11.0000,1,   2,   6,   1,1.01908, -20.8088,1.10000,0.90000,1.10000,0.90000
  2090,'SANDSKEI    ', 220.0000,1,   2,   1,   1,1.02735, -13.9343,1.10000,0.90000,1.10000,0.90000
  2100,'BRENNIME    ', 220.0000,1,   2,   1,   1,1.00902, -20.6730,1.10000,0.90000,1.10000,0.90000
  2101,'BREN-132    ', 132.0000,1,   2,   1,   1,1.01719, -20.4959,1.10000,0.90000,1.10000,0.90000
  2103,'BRENN-11    ',  11.0000,1,   2,   2,   1,1.00631, -21.7167,1.10000,0.90000,1.10000,0.90000
  2105,'SP5_ROFAREIT',  33.0000,1,   1,   1,   1,1.01754, -20.5104,1.10000,0.90000,1.10000,0.90000
  2106,'BRE_6,3     ',   6.3000,1,   1,   1,   1,1.01731, -20.5001,1.10000,0.90000,1.10000,0.90000
  2107,'BRENN-66    ',  66.0000,1,   2,   1,   1,1.02592, -22.0130,1.10000,0.90000,1.10000,0.90000
  2108,'BRESP3DE    ',  11.0000,1,   2,   1,   1,1.02592, -22.0130,1.10000,0.90000,1.10000,0.90000
  2109,'BRE_33      ',  33.0000,1,   5,   1,   1,1.01743, -20.5042,1.10000,0.90000,1.10000,0.90000
  2110,'AKRANES     ',  66.0000,1,   2,   1,   1,1.02134, -22.3192,1.10000,0.90000,1.10000,0.90000
  2111,'A20-6       ',   6.3000,1,   2,   3,   1,1.04677, -23.4111,1.10000,0.90000,1.10000,0.90000
  2120,'KLAFASTAÐIR ', 220.0000,1,   2,  12,   1,1.00655, -21.1539,1.10000,0.90000,1.10000,0.90000
  2121,'SVC_16KV    ',  16.0000,1,   1,   1,   1,1.01931, -21.2019,1.10000,0.90000,1.10000,0.90000
  2122,'KLA_LOFTLINA', 220.0000,1,   1,   1,   1,1.00655, -21.1539,1.10000,0.90000,1.10000,0.90000
  2140,'FESI        ', 220.0000,1,   2,  11,   1,1.00744, -20.9570,1.10000,0.90000,1.10000,0.90000
  2160,'NA_A        ', 220.0000,1,   2,  12,   1,1.00616, -21.2191,1.10000,0.90000,1.10000,0.90000
  2161,'NA_B        ', 220.0000,1,   2,  12,   1,1.00616, -21.2191,1.10000,0.90000,1.10000,0.90000
  2200,'A1          ', 132.0000,1,   2,   3,   1,1.02331, -16.0591,1.10000,0.90000,1.10000,0.90000
  2201,'A1-11       ',  11.0000,1,   2,   3,   1,1.02570, -18.5930,1.10000,0.90000,1.10000,0.90000
  2210,'A2          ', 132.0000,1,   2,   3,   1,1.02372, -16.0774,1.10000,0.90000,1.10000,0.90000
  2220,'A3          ', 132.0000,1,   2,   3,   1,1.02350, -16.0518,1.10000,0.90000,1.10000,0.90000
  2231,'A4-11       ',  11.0000,1,   2,   3,   1,1.03486, -19.6685,1.10000,0.90000,1.10000,0.90000
  2240,'A5          ', 132.0000,1,   2,   3,   1,1.02281, -16.0099,1.10000,0.90000,1.10000,0.90000
  2241,'A5-11       ',  11.0000,1,   2,   3,   1,1.05683, -19.4519,1.10000,0.90000,1.10000,0.90000
  2251,'A6-11       ',  11.0000,1,   2,   3,   1,1.02927, -19.5534,1.10000,0.90000,1.10000,0.90000
  2260,'A7          ', 132.0000,1,   2,   3,   1,1.02449, -16.0335,1.10000,0.90000,1.10000,0.90000
  2261,'A7-11       ',  11.0000,1,   2,   3,   1,1.01800, -18.9951,1.10000,0.90000,1.10000,0.90000
  2300,'FITJAR      ', 132.0000,1,   2,   1,   1,1.02239, -13.1157,1.10000,0.90000,1.10000,0.90000
  2301,'SVARTSENGI  ', 132.0000,1,   2,   5,   1,1.02526, -11.8849,1.10000,0.90000,1.10000,0.90000
  2302,'SVARTS_VEL3 ',  11.0000,2,   2,   5,   1,1.03000,  -9.7636,1.10000,0.90000,1.10000,0.90000
  2303,'FITJAR_33KV ',  33.0000,1,   1,   1,   1,1.01783, -13.9939,1.10000,0.90000,1.10000,0.90000
  2304,'STA         ', 132.0000,1,   1,   1,   1,1.02176, -13.2170,1.10000,0.90000,1.10000,0.90000
  2305,'STA_33KV    ',  33.0000,1,   1,   1,   1,1.02065, -18.8147,1.10000,0.90000,1.10000,0.90000
  2320,'RAUDIMELUR  ', 132.0000,1,   2,   1,   1,1.02412, -12.2282,1.10000,0.90000,1.10000,0.90000
  2330,'REYKJANES   ', 132.0000,1,   2,   5,   1,1.02756, -10.3719,1.10000,0.90000,1.10000,0.90000
  2332,'REYKJAV1    ',  11.0000,2,   2,   5,   1,1.03000,  -5.9251,1.10000,0.90000,1.10000,0.90000
  2333,'REYKJAV2    ',  11.0000,2,   2,   5,   1,1.03000,  -5.9251,1.10000,0.90000,1.10000,0.90000
  2336,'SVARTVEL    ',  11.0000,2,   2,   5,   1,1.03000,  -6.5186,1.10000,0.90000,1.10000,0.90000
  2350,'VALLARHEIDI ',  33.0000,1,   1,   1,   1,1.01572, -14.1319,1.10000,0.90000,1.10000,0.90000
  3120,'VATNSHAM    ', 132.0000,1,   3,   1,   1,1.02161, -20.2037,1.10000,0.90000,1.10000,0.90000
  3121,'VATNS-66    ',  66.0000,1,   3,   1,   1,1.01885, -21.4144,1.10000,0.90000,1.10000,0.90000
  3122,'VATNSH19    ',  11.0000,1,   3,   2,   1,1.02007, -20.8758,1.10000,0.90000,1.10000,0.90000
  3123,'VATNSH-S    ',   0.4150,1,   3,   2,   1,1.02007, -20.8758,1.10000,0.90000,1.10000,0.90000
  3124,'VAT_19KV    ',  19.0000,1,   1,   1,   1,1.00607, -23.4958,1.10000,0.90000,1.10000,0.90000
  3130,'VEGAMOT     ',  66.0000,1,   3,   1,   1,0.97665, -24.6899,1.10000,0.90000,1.10000,0.90000
  3131,'VEG_11KV    ',  19.0000,1,   1,   1,   1,1.00492, -25.1022,1.10000,0.90000,1.10000,0.90000
  3140,'OLAFSVIK    ',  66.0000,1,   3,   1,   1,0.95948, -25.9651,1.10000,0.90000,1.10000,0.90000
  3141,'OLA_19KV    ',  19.0000,1,   1,   1,   1,0.98299, -28.8408,1.10000,0.90000,1.10000,0.90000
  3150,'VOGASKEI    ',  66.0000,1,   3,   1,   1,0.96170, -25.2973,1.10000,0.90000,1.10000,0.90000
  3151,'VOG_11KV    ',  11.0000,1,   1,   1,   1,1.00397, -26.7391,1.10000,0.90000,1.10000,0.90000
  3160,'GRUNDARF    ',  66.0000,1,   3,   1,   1,0.95072, -25.9631,1.10000,0.90000,1.10000,0.90000
  3161,'GRU_19KV    ',  19.0000,1,   1,   1,   1,1.00040, -27.8376,1.10000,0.90000,1.10000,0.90000
  3170,'ANDAKILL    ',  66.0000,2,   2,   1,   1,1.02020, -21.3516,1.10000,0.90000,1.10000,0.90000
  3200,'GLERASKO    ', 132.0000,1,   3,   1,   1,1.05348, -19.2136,1.10000,0.90000,1.10000,0.90000
  3201,'GLERA-19    ',  19.0000,1,   3,   2,   1,1.04841, -20.0551,1.10000,0.90000,1.10000,0.90000
  3203,'GLERA-D1    ',  11.0000,1,   3,   2,   1,1.04841, -20.0551,1.10000,0.90000,1.10000,0.90000
  3210,'GEIRADAL    ', 132.0000,1,   3,   1,   1,1.06937, -20.8993,1.10000,0.90000,1.10000,0.90000
  3211,'GEIRADA3    ',  19.0000,1,   3,   7,   1,1.06812, -21.5767,1.10000,0.90000,1.10000,0.90000
  3212,'GEIRADA4    ',  33.0000,1,   3,   7,   1,1.06937, -21.5441,1.10000,0.90000,1.10000,0.90000
  3300,'MJOLKA      ', 132.0000,1,   3,   1,   1,1.05265, -23.0717,1.10000,0.90000,1.10000,0.90000
  3301,'MJOLK-66    ',  66.0000,1,   3,   7,   1,1.02649, -28.0347,1.10000,0.90000,1.10000,0.90000
  3303,'MJOLKVEL    ',   6.3000,2,   3,   7,   1,1.08000, -24.4023,1.10000,0.90000,1.10000,0.90000
  3304,'MJO_V2      ',   6.3000,2,   3,   7,   1,1.08000, -24.4023,1.10000,0.90000,1.10000,0.90000
  3305,'MJODUMMY    ',  33.0000,1,   3,   7,   1,1.07075, -26.1274,1.10000,0.90000,1.10000,0.90000
  3310,'BREIDIDALUR ',  66.0000,1,   3,   1,   1,0.99090, -30.2173,1.10000,0.90000,1.10000,0.90000
  3311,'KELDEYRI33  ',  33.0000,1,   1,   1,   1,0.99355, -36.1691,1.10000,0.90000,1.10000,0.90000
  3313,'PATREKSFJORD',  66.0000,1,   1,   1,   1,0.98467, -30.7272,1.10000,0.90000,1.10000,0.90000
  3320,'ISAFJORDUR  ',  66.0000,1,   3,   1,   1,0.97368, -31.2997,1.10000,0.90000,1.10000,0.90000
  3321,'PATREKSF11  ',  11.0000,1,   1,   1,   1,0.97389, -32.4855,1.10000,0.90000,1.10000,0.90000
  3330,'BOLUNGAVIK  ',  66.0000,1,   3,   1,   1,0.97622, -31.1988,1.10000,0.90000,1.10000,0.90000
  3333,'BOL_SKERÐANL',  11.0000,1,   1,   1,   1,0.96460, -33.3836,1.10000,0.90000,1.10000,0.90000
  3340,'KELDEYRI66  ',  66.0000,1,   3,   1,   1,0.99661, -30.2110,1.10000,0.90000,1.10000,0.90000
  3341,'HRAFSEYRI   ',  33.0000,1,   1,   1,   1,1.04094, -27.2252,1.10000,0.90000,1.10000,0.90000
  3342,'ÞINGEYRI    ',  33.0000,1,   1,   1,   1,1.02220, -27.9935,1.10000,0.90000,1.10000,0.90000
  3351,'THINGEYRI11 ',  11.0000,1,   1,   1,   1,1.02220, -27.9935,1.10000,0.90000,1.10000,0.90000
  3361,'BREIDAD33   ',  33.0000,1,   1,   1,   1,0.98934, -29.4782,1.10000,0.90000,1.10000,0.90000
  3362,'FLATEYRI    ',  19.0000,1,   1,   1,   1,0.97195, -32.3452,1.10000,0.90000,1.10000,0.90000
  3363,'BREIDAD11   ',  11.0000,1,   1,   1,   1,0.98994, -29.7735,1.10000,0.90000,1.10000,0.90000
  3366,'BREIDAD0,7  ',   0.7000,1,   1,   1,   1,0.97667, -31.5158,1.10000,0.90000,1.10000,0.90000
  3370,'ISA_SKERDANL',  11.0000,1,   1,   1,   1,0.99683, -33.9154,1.10000,0.90000,1.10000,0.90000
  3371,'ISA_FORGANGS',  11.0000,1,   1,   1,   1,0.99683, -33.9154,1.10000,0.90000,1.10000,0.90000
  3380,'BILDUDALUR33',  33.0000,1,   1,   1,   1,0.94819, -39.6494,1.10000,0.90000,1.10000,0.90000
  3381,'BOL_FORGANGS',  11.0000,1,   1,   1,   1,0.96460, -33.3836,1.10000,0.90000,1.10000,0.90000
  3390,'HOLMAVIK    ',  33.0000,1,   1,   1,   1,1.06172, -22.3764,1.10000,0.90000,1.10000,0.90000
  4010,'HRUTATUN    ', 132.0000,1,   3,   1,   1,1.04133, -17.9119,1.10000,0.90000,1.10000,0.90000
  4011,'HRUTA-19    ',  19.0000,1,   3,   2,   1,1.03413, -19.1439,1.10000,0.90000,1.10000,0.90000
  4013,'HRUTA-D1    ',  11.0000,1,   3,   2,   1,1.03413, -19.1439,1.10000,0.90000,1.10000,0.90000
  4020,'LAXARVAT    ', 132.0000,1,   4,   1,   1,1.03613, -12.4461,1.10000,0.90000,1.10000,0.90000
  4021,'LAXAVA-2    ',  11.0000,1,   4,   2,   1,1.02711, -14.1666,1.10000,0.90000,1.10000,0.90000
  4022,'LAXAVA-4    ',  33.0000,1,   1,   1,   1,1.03028, -13.5699,1.10000,0.90000,1.10000,0.90000
  4030,'BLANDA A    ', 132.0000,1,   4,   1,   1,1.03561,  -9.8923,1.10000,0.90000,1.10000,0.90000
  4031,'BLANDAV1    ',  11.0000,2,   4,   4,   1,1.03000,  -6.3060,1.10000,0.90000,1.10000,0.90000
  4032,'BLANDAV2    ',  11.0000,2,   4,   4,   1,1.03000,  -6.3329,1.10000,0.90000,1.10000,0.90000
  4033,'BLANDAV3    ',  11.0000,2,   4,   4,   1,1.03000,  -6.2970,1.10000,0.90000,1.10000,0.90000
  4036,'BLANDA B    ', 132.0000,1,   4,   1,   1,1.03561,  -9.8923,1.10000,0.90000,1.10000,0.90000
  4040,'VARMAHLI    ', 132.0000,1,   4,   1,   1,1.03088, -12.2392,1.10000,0.90000,1.10000,0.90000
  4041,'VARMAHL4    ',  66.0000,1,   4,   1,   1,1.02229, -13.9794,1.10000,0.90000,1.10000,0.90000
...
0 / END OF BUS DATA, BEGIN LOAD DATA
  1015,'1 ',1,   1,   1,     0.631,     0.158,     0.000,     0.000,     0.000,     0.000,   1,1,0
  1018,'1 ',1,   1,   2,     1.324,     0.332,     0.000,     0.000,     0.000,     0.000,   1,1,0
  1078,'1 ',1,   1,   1,     4.901,     1.228,     0.000,     0.000,     0.000,     0.000,   1,1,0
  1085,'1 ',1,   1,   2,     7.351,     1.842,     0.000,     0.000,     0.000,     0.000,   1,1,0
  1086,'1 ',1,   1,   2,     4.756,     1.192,     0.000,     0.000,     0.000,     0.000,   1,1,0
  1087,'1 ',1,   1,   2,     4.940,     1.238,     0.000,     0.000,     0.000,     0.000,   1,1,0
  1091,'1 ',1,   4,   2,     2.668,     0.669,     0.000,     0.000,     0.000,     0.000,   1,1,0
  1092,'1 ',1,   1,   1,     2.000,     0.501,     0.000,     0.000,     0.000,     0.000,   1,1,0
  1095,'1 ',1,   1,   1,    13.200,     3.308,     0.000,     0.000,     0.000,     0.000,   1,1,0
  1098,'1 ',1,   4,   2,     6.569,     1.646,     0.000,     0.000,     0.000,     0.000,   1,1,0
  1134,'1 ',1,   2,   1,     4.644,     1.164,     0.000,     0.000,     0.000,     0.000,   1,1,0
  1137,'1 ',1,   2,   2,     3.707,     0.929,     0.000,     0.000,     0.000,     0.000,   1,1,0
  1148,'1 ',1,   2,   2,     3.218,     0.807,     0.000,     0.000,     0.000,     0.000,   1,1,0
  1150,'1 ',1,   2,   2,     2.363,     0.592,     0.000,     0.000,     0.000,     0.000,   1,1,0
  1151,'1 ',1,   2,   2,    14.463,     3.625,     0.000,     0.000,     0.000,     0.000,   1,1,0
  1200,'1 ',1,   2,   3,     0.020,     0.005,     0.000,     0.000,     0.000,     0.000,   1,1,0
  2018,'1 ',1,   2,   3,    11.336,     2.841,     0.000,     0.000,     0.000,     0.000,   1,1,0
  2022,'1 ',1,   2,  10,   192.450,    27.423,     0.000,     0.000,     0.000,     0.000,   1,0,0
  2023,'1 ',1,   2,  10,   192.450,    27.423,     0.000,     0.000,     0.000,     0.000,   1,0,0
  2030,'1 ',1,   2,   3,    20.686,     5.184,     0.000,     0.000,     0.000,     0.000,   1,1,0
  2030,'2 ',1,   2,   3,     9.849,     2.468,     0.000,     0.000,     0.000,     0.000,   1,1,0
  2062,'1 ',1,   2,   6,    19.698,     4.937,     0.000,     0.000,     0.000,     0.000,   1,1,0
  2103,'1 ',1,   2,   1,     5.673,     1.422,     0.000,     0.000,     0.000,     0.000,   1,1,0
  2111,'1 ',1,   4,   3,     6.681,     1.674,     0.000,     0.000,     0.000,     0.000,   1,1,0
  2140,'1 ',1,   2,  11,   129.000,    18.382,     0.000,     0.000,     0.000,     0.000,   1,0,0
  2160,'1 ',1,   2,  12,   257.400,    36.678,     0.000,     0.000,     0.000,     0.000,   1,0,0
  2161,'2 ',1,   2,  12,   268.200,    38.216,     0.000,     0.000,     0.000,     0.000,   1,0,0
  2201,'1 ',1,   2,   3,    17.987,     4.508,     0.000,     0.000,     0.000,     0.000,   1,1,0
  2210,'1 ',1,   2,   3,    19.015,     4.766,     0.000,     0.000,     0.000,     0.000,   1,1,0
  2220,'1 ',1,   2,   3,    20.299,     5.087,     0.000,     0.000,     0.000,     0.000,   1,1,0
  2231,'1 ',1,   2,   3,    15.675,     3.928,     0.000,     0.000,     0.000,     0.000,   1,1,0
  2241,'1 ',1,   2,   3,    41.677,    10.445,     0.000,     0.000,     0.000,     0.000,   1,1,0
  2251,'1 ',1,   2,   3,    12.558,     3.147,     0.000,     0.000,     0.000,     0.000,   1,1,0
  2261,'1 ',1,   2,   3,    22.162,     5.554,     0.000,     0.000,     0.000,     0.000,   1,1,0
  2300,'1 ',1,   2,   5,    29.709,     7.446,     0.000,     0.000,     0.000,     0.000,   1,1,0
  2301,'1 ',1,   2,   5,     4.492,     1.126,     0.000,     0.000,     0.000,     0.000,   1,1,0
  2305,'1 ',1,   1,   1,    35.000,     8.772,     0.000,     0.000,     0.000,     0.000,   1,1,0
  2350,'1 ',1,   1,   1,    10.582,     2.652,     0.000,     0.000,     0.000,     0.000,   1,1,0
  3124,'1 ',1,   3,   2,     9.024,     2.262,     0.000,     0.000,     0.000,     0.000,   1,1,0
  3131,'1 ',1,   3,   2,     0.387,     0.097,     0.000,     0.000,     0.000,     0.000,   1,1,0
  3141,'1 ',1,   3,   2,     6.671,     1.672,     0.000,     0.000,     0.000,     0.000,   1,1,0
  3151,'1 ',1,   3,   2,     1.324,     0.332,     0.000,     0.000,     0.000,     0.000,   1,1,0
  3161,'1 ',1,   3,   2,     3.605,     0.904,     0.000,     0.000,     0.000,     0.000,   1,1,0
  3201,'1 ',1,   3,   2,     2.088,     0.523,     0.000,     0.000,     0.000,     0.000,   1,1,0
  3211,'1 ',1,   3,   7,     0.723,     0.181,     0.000,     0.000,     0.000,     0.000,   1,1,0
  3321,'1 ',1,   1,   1,     2.210,     0.554,     0.000,     0.000,     0.000,     0.000,   1,1,0
  3333,'1 ',1,   1,   1,     1.976,     0.495,     0.000,     0.000,     0.000,     0.000,   1,1,0
  3362,'1 ',1,   1,   1,     2.780,     0.697,     0.000,     0.000,     0.000,     0.000,   1,1,0
  3370,'1 ',1,   1,   1,     7.751,     1.943,     0.000,     0.000,     0.000,     0.000,   1,1,0
  3371,'1 ',1,   3,   7,     5.622,     1.409,     0.000,     0.000,     0.000,     0.000,   1,1,0
  3380,'1 ',1,   1,   1,     9.075,     2.274,     0.000,     0.000,     0.000,     0.000,   1,1,0
  3381,'1 ',1,   3,   7,     2.353,     0.590,     0.000,     0.000,     0.000,     0.000,   1,1,0
  3390,'1 ',1,   1,   1,     3.768,     0.944,     0.000,     0.000,     0.000,     0.000,   1,1,0
  4011,'1 ',1,   3,   2,     2.974,     0.745,     0.000,     0.000,     0.000,     0.000,   1,1,0
  4021,'1 ',1,   4,   2,     3.534,     0.886,     0.000,     0.000,     0.000,     0.000,   1,1,0
  4042,'1 ',1,   4,   2,     1.731,     0.434,     0.000,     0.000,     0.000,     0.000,   1,1,0
  4045,'1 ',1,   4,   2,     5.092,     1.276,     0.000,     0.000,     0.000,     0.000,   1,1,0
  4051,'1 ',1,   4,   8,    20.787,     5.210,     0.000,     0.000,     0.000,     0.000,   1,1,0
  4053,'1 ',1,   4,   2,     5.673,     1.422,     0.000,     0.000,     0.000,     0.000,   1,1,0
  4055,'1 ',1,   4,  14,    62.850,    12.762,     0.000,     0.000,     0.000,     0.000,   1,0,0
  4058,'1 ',1,   4,   8,     6.040,     1.514,     0.000,     0.000,     0.000,     0.000,   1,1,0
  4104,'1 ',1,   4,   1,     1.945,     0.488,     0.000,     0.000,     0.000,     0.000,   1,1,0
  4108,'1 ',1,   4,   2,     0.234,     0.059,     0.000,     0.000,     0.000,     0.000,   1,1,0
  4110,'1 ',1,   4,   2,     0.581,     0.145,     0.000,     0.000,     0.000,     0.000,   1,1,0
  4120,'1 ',1,   4,   2,     4.879,     1.223,     0.000,     0.000,     0.000,     0.000,   1,1,0
  4122,'1 ',1,   1,   1,     0.112,     0.028,     0.000,     0.000,     0.000,     0.000,   1,1,0
  5013,'1 ',1,   4,   2,     5.408,     1.355,     0.000,     0.000,     0.000,     0.000,   1,1,0
  5015,'1 ',1,   1,   1,     4.950,     1.241,     0.000,     0.000,     0.000,     0.000,   1,1,0
  5021,'1 ',1,   4,   2,     2.699,     0.676,     0.000,     0.000,     0.000,     0.000,   1,1,0
  5027,'1 ',1,   1,   1,     0.000,     0.000,     0.000,     0.000,     0.000,     0.000,   1,1,0
  5039,'1 ',1,   4,   2,     6.630,     1.662,     0.000,     0.000,     0.000,     0.000,   1,1,0
  5041,'1 ',1,   4,   2,     2.475,     0.620,     0.000,     0.000,     0.000,     0.000,   1,1,0
  5051,'1 ',1,   4,   1,     1.314,     0.329,     0.000,     0.000,     0.000,     0.000,   1,1,0
  5071,'1 ',1,   4,  13,    12.950,     6.620,     0.000,     0.000,     0.000,     0.000,   1,0,0
  5072,'1 ',1,   4,  13,    87.650,    39.720,     0.000,     0.000,     0.000,     0.000,   1,0,0
  5073,'1 ',1,   4,  13,    87.650,    39.720,     0.000,     0.000,     0.000,     0.000,   1,0,0
  5074,'1 ',1,   4,  13,    87.650,    39.720,     0.000,     0.000,     0.000,     0.000,   1,0,0
  5075,'1 ',1,   4,  13,    87.650,    39.720,     0.000,     0.000,     0.000,     0.000,   1,0,0
  5076,'1 ',1,   4,  13,    87.650,    39.720,     0.000,     0.000,     0.000,     0.000,   1,0,0
  5077,'1 ',1,   4,  13,    12.950,     6.620,     0.000,     0.000,     0.000,     0.000,   1,0,0
  5078,'1 ',1,   5,  13,    87.650,    39.720,     0.000,     0.000,     0.000,     0.000,   1,0,0
  5081,'1 ',1,   4,   2,    14.962,     3.750,     0.000,     0.000,     0.000,     0.000,   1,1,0
  5082,'1 ',1,   1,   1,     3.962,     0.993,     0.000,     0.000,     0.000,     0.000,   1,1,0
  5087,'1 ',1,   4,   2,     6.610,     1.657,     0.000,     0.000,     0.000,     0.000,   1,1,0
  5089,'1 ',1,   1,   1,     6.610,     1.657,     0.000,     0.000,     0.000,     0.000,   1,1,0
  5093,'1 ',1,   1,   1,     7.639,     1.914,     0.000,     0.000,     0.000,     0.000,   1,1,0
  5094,'1 ',1,   1,   1,     8.341,     2.091,     0.000,     0.000,     0.000,     0.000,   1,1,0
  5096,'1 ',1,   1,   1,     1.355,     0.339,     0.000,     0.000,     0.000,     0.000,   1,1,0
  5097,'2 ',1,   4,   2,    18.023,     5.269,     0.000,     0.000,     0.000,     0.000,   1,1,0
  5101,'1 ',1,   4,   2,     2.000,     0.501,     0.000,     0.000,     0.000,     0.000,   1,1,0
  5107,'1 ',1,   1,   1,     2.078,     0.521,     0.000,     0.000,     0.000,     0.000,   1,1,0
  5203,'1 ',1,   4,   2,     1.772,     0.444,     0.000,     0.000,     0.000,     0.000,   1,1,0
  5211,'1 ',1,   4,   2,     3.300,     0.827,     0.000,     0.000,     0.000,     0.000,   1,1,0
  5212,'1 ',1,   1,   1,     0.081,     0.020,     0.000,     0.000,     0.000,     0.000,   1,1,0
0 / END OF LOAD DATA, BEGIN FIXED SHUNT DATA
  1087,'1 ',1,     0.000,    10.000
  1095,'1 ',1,     0.000,     5.000
  2051,'1 ',1,     0.000,    35.000
  2100,'1 ',1,     0.000,    75.000
  2121,'1 ',1,     0.000,    12.110
  3140,'1 ',1,    -1.800,     0.900
  3210,'1 ',1,     0.000,    20.000
  3330,'1 ',1,     0.000,    -3.000
  3371,'1 ',1,    -0.600,     0.360
  3380,'1 ',1,    -1.600,     1.340
  3380,'2 ',1,     0.000,     2.500
  3381,'1 ',1,    -0.200,     0.100
  3390,'1 ',1,    -2.200,     1.060
  4050,'1 ',1,     0.000,    20.000
  5010,'1 ',1,     0.000,     0.740
  5021,'1 ',1,     0.000,    -5.000
  5037,'1 ',1,    -1.300,     0.200
  5072,'1 ',1,     0.000,    62.000
  5073,'1 ',1,     0.000,    62.000
  5074,'1 ',1,     0.000,    62.000
  5075,'1 ',1,     0.000,    62.000
  5076,'1 ',1,     0.000,    62.000
  5078,'1 ',1,     0.000,    62.000
  5089,'1 ',1,     0.000,     2.500
0 / END OF FIXED SHUNT DATA, BEGIN GENERATOR DATA
  1011,'1 ',    48.700,    10.820,    17.000,   -10.000,0.99000,     0,    53.300, 7.40000E-3, 2.82700E-1, 0.00000E+0, 0.00000E+0,1.00000,1,  100.0,    51.000,     0.000,   1,1.0000
  1011,'2 ',    48.500,    10.775,    17.000,   -10.000,0.99000,     0,    53.300, 7.40000E-3, 2.82700E-1, 0.00000E+0, 0.00000E+0,1.00000,1,  100.0,    51.000,     0.000,   1,1.0000
  1012,'1 ',    48.700,    10.974,    17.000,   -10.000,0.99000,     0,    53.300, 7.40000E-3, 2.82700E-1, 0.00000E+0, 0.00000E+0,1.00000,1,  100.0,    51.000,     0.000,   1,1.0000
  1012,'2 ',    47.600,    10.726,    17.000,   -10.000,0.99000,     0,    53.300, 7.40000E-3, 2.82700E-1, 0.00000E+0, 0.00000E+0,1.00000,1,  100.0,    51.000,     0.000,   1,1.0000
  1013,'1 ',    48.600,     9.323,    17.000,   -10.000,1.06500,     0,    53.300, 7.40000E-3, 2.82700E-1, 0.00000E+0, 0.00000E+0,1.00000,1,  100.0,    51.000,     0.000,   1,1.0000
  1013,'2 ',    47.600,     9.131,    17.000,   -10.000,1.06500,     0,    53.300, 7.40000E-3, 2.82700E-1, 0.00000E+0, 0.00000E+0,1.00000,1,  100.0,    51.000,     0.000,   1,1.0000
  1021,'1 ',    50.000,    14.850,    38.000,   -20.000,0.98000,     0,    63.000, 3.20000E-3, 2.05500E-1, 0.00000E+0, 0.00000E+0,1.00000,1,  100.0,    55.000,     0.000,   1,1.0000
  1022,'1 ',    50.000,    14.850,    38.000,   -20.000,0.98000,     0,    63.000, 3.20000E-3, 2.05500E-1, 0.00000E+0, 0.00000E+0,1.00000,1,  100.0,    55.000,     0.000,   1,1.0000
  1023,'1 ',    50.000,    14.850,    38.000,   -20.000,0.98000,     0,    63.000, 3.20000E-3, 2.05500E-1, 0.00000E+0, 0.00000E+0,1.00000,1,  100.0,    55.000,     0.000,   1,1.0000
  1031,'1 ',    63.998,    31.266,    42.000,   -20.000,1.00000,     0,    81.500, 3.56000E-3, 1.60000E-1, 0.00000E+0, 0.00000E+0,1.00000,1,  100.0,    75.000,     0.000,   1,1.0000
  1032,'1 ',    63.998,    31.266,    42.000,   -20.000,1.00000,     0,    81.500, 3.56000E-3, 1.60000E-1, 0.00000E+0, 0.00000E+0,1.00000,1,  100.0,    75.000,     0.000,   1,1.0000
  1033,'1 ',    63.998,    31.266,    42.000,   -20.000,1.00000,     0,    81.500, 3.56000E-3, 1.60000E-1, 0.00000E+0, 0.00000E+0,1.00000,1,  100.0,    75.000,     0.000,   1,1.0000
  1041,'1 ',    36.000,    15.541,    17.000,   -10.000,1.01000,     0,    53.300, 7.40000E-3, 2.82700E-1, 0.00000E+0, 0.00000E+0,1.00000,1,  100.0,    47.000,     0.000,   1,1.0000
  1042,'1 ',    36.000,    15.541,    17.000,   -10.000,1.01000,     0,    53.300, 7.40000E-3, 2.82700E-1, 0.00000E+0, 0.00000E+0,1.00000,1,  100.0,    47.000,     0.000,   1,1.0000
  1051,'1 ',    64.100,     4.603,    42.000,   -20.000,1.05400,     0,    72.000, 3.56000E-3, 1.60000E-1, 0.00000E+0, 0.00000E+0,1.00000,1,  100.0,    70.000,     0.000,   1,1.0000
  1052,'1 ',    64.200,     6.523,    42.000,   -20.000,1.05400,     0,    72.000, 3.56000E-3, 1.60000E-1, 0.00000E+0, 0.00000E+0,1.00000,1,  100.0,    70.000,     0.000,   1,1.0000
  1061,'1 ',    44.700,   -16.213,    19.600,   -19.600,1.05000,     0,    60.000, 2.00000E-1, 2.05500E-1, 0.00000E+0, 0.00000E+0,1.00000,1,  100.0,    46.000,     0.000,   1,1.0000
  1062,'1 ',    44.700,   -16.213,    19.600,   -19.600,1.05000,     0,    60.000, 2.00000E-1, 2.05500E-1, 0.00000E+0, 0.00000E+0,1.00000,1,  100.0,    46.000,     0.000,   1,1.0000
  1111,'1 ',    13.000,     2.482,    11.600,    -5.000,1.01000,     0,    19.400, 3.10000E-3, 2.70000E-1, 0.00000E+0, 0.00000E+0,1.00000,1,  100.0,    16.000,     0.000,   1,1.0000
  1112,'1 ',     7.000,     2.626,    11.600,    -5.000,1.01000,     0,    19.400, 3.10000E-3, 2.70000E-1, 0.00000E+0, 0.00000E+0,1.00000,1,  100.0,    16.000,     0.000,   1,1.0000
  1113,'1 ',     7.000,     3.094,    12.600,    -5.000,1.01000,     0,    21.000, 3.10000E-3, 2.70000E-1, 0.00000E+0, 0.00000E+0,1.00000,1,  100.0,    16.000,     0.000,   1,1.0000
  1121,'1 ',     7.000,     3.151,     9.900,    -5.000,1.05000,     0,    16.500, 5.00000E-3, 2.30000E-1, 0.00000E+0, 0.00000E+0,1.00000,1,  100.0,    13.500,     0.000,   1,1.0000
  1122,'1 ',     7.000,     3.111,     9.900,    -5.000,1.05000,     0,    16.500, 5.00000E-3, 2.30000E-1, 0.00000E+0, 0.00000E+0,1.00000,1,  100.0,    13.500,     0.000,   1,1.0000
  1131,'1 ',     4.000,     0.016,     3.300,    -2.000,1.03000,     0,     5.500, 7.50000E-3, 2.40000E-1, 0.00000E+0, 0.00000E+0,1.00000,1,  100.0,     4.400,     0.000,   1,1.0000
  1131,'2 ',     4.000,     0.016,     3.300,    -2.000,1.03000,     0,     5.500, 7.50000E-3, 2.40000E-1, 0.00000E+0, 0.00000E+0,1.00000,1,  100.0,     4.400,     0.000,   1,1.0000
  1131,'3 ',     6.400,     0.025,     4.400,    -3.000,1.03000,     0,     7.200, 7.50000E-3, 2.50000E-1, 0.00000E+0, 0.00000E+0,1.00000,1,  100.0,     6.500,     0.000,   1,1.0000
  1141,'1 ',    42.000,     3.343,    22.000,   -20.000,1.04000,     0,    55.000, 3.00000E-3, 1.67000E-1, 0.00000E+0, 0.00000E+0,1.00000,1,  100.0,    45.000,     0.000,   1,1.0000
  1142,'1 ',    42.000,     3.343,    22.000,   -20.000,1.04000,     0,    55.000, 3.00000E-3, 1.67000E-1, 0.00000E+0, 0.00000E+0,1.00000,1,  100.0,    45.000,     0.000,   1,1.0000
  1143,'1 ',    26.000,     2.840,    22.000,   -20.000,1.04000,     0,    55.000, 3.00000E-3, 1.67000E-1, 0.00000E+0, 0.00000E+0,1.00000,1,  100.0,    30.000,     0.000,   1,1.0000
  1144,'1 ',    40.000,     3.246,    22.000,   -20.000,1.04000,     0,    55.000, 3.00000E-3, 1.67000E-1, 0.00000E+0, 0.00000E+0,1.00000,1,  100.0,    45.000,     0.000,   1,1.0000
  1145,'1 ',    40.000,     3.246,    22.000,   -20.000,1.04000,     0,    55.000, 3.00000E-3, 1.67000E-1, 0.00000E+0, 0.00000E+0,1.00000,1,  100.0,    45.000,     0.000,   1,1.0000
  1146,'1 ',    44.900,     3.500,    22.000,   -20.000,1.04000,     0,    55.000, 3.00000E-3, 1.67000E-1, 0.00000E+0, 0.00000E+0,1.00000,1,  100.0,    45.000,     0.000,   1,1.0000
  1147,'1 ',    44.900,     3.500,    22.000,   -20.000,1.04000,     0,    55.000, 3.00000E-3, 1.67000E-1, 0.00000E+0, 0.00000E+0,1.00000,1,  100.0,    45.000,     0.000,   1,1.0000
  1201,'1 ',    21.800,    -1.905,    20.000,   -20.000,1.03000,     0,    40.000, 3.00000E-3, 2.07300E-1, 0.00000E+0, 0.00000E+0,1.00000,1,  100.0,    32.000,     0.000,   1,1.0000
  1202,'1 ',    22.200,    -1.927,    20.000,   -20.000,1.03000,     0,    40.000, 3.00000E-3, 2.07300E-1, 0.00000E+0, 0.00000E+0,1.00000,1,  100.0,    32.000,     0.000,   1,1.0000
  1203,'1 ',    22.900,    -1.966,    20.000,   -20.000,1.03000,     0,    40.000, 3.00000E-3, 2.07300E-1, 0.00000E+0, 0.00000E+0,1.00000,1,  100.0,    32.000,     0.000,   1,1.0000
  1204,'1 ',    23.800,    -2.016,    20.000,   -20.000,1.03000,     0,    40.000, 3.00000E-3, 2.07300E-1, 0.00000E+0, 0.00000E+0,1.00000,1,  100.0,    32.000,     0.000,   1,1.0000
  2302,'1 ',    18.000,     1.645,    22.000,   -20.000,1.03000,     0,    55.000, 3.00000E-3, 1.80000E-1, 0.00000E+0, 0.00000E+0,1.00000,1,  100.0,    40.000,     0.000,   1,1.0000
  2332,'1 ',    48.000,     1.890,    23.000,   -16.000,1.03000,     0,    55.000, 3.00000E-3, 1.70000E-1, 0.00000E+0, 0.00000E+0,1.00000,1,  100.0,    50.000,     0.000,   1,1.0000
  2333,'1 ',    48.000,     1.890,    23.000,   -16.000,1.03000,     0,    55.000, 3.00000E-3, 1.70000E-1, 0.00000E+0, 0.00000E+0,1.00000,1,  100.0,    50.000,     0.000,   1,1.0000
  2336,'1 ',    26.500,     1.752,    20.000,   -16.000,1.03000,     0,    50.000, 3.00000E-3, 1.80000E-1, 0.00000E+0, 0.00000E+0,1.00000,1,  100.0,    45.000,     0.000,   1,1.0000
  3170,'1 ',     7.800,     3.300,     3.300,    -3.300,1.04000,     0,    10.000, 2.90000E-3, 2.00000E-1, 0.00000E+0, 0.00000E+0,1.00000,1,  100.0,     8.000,     0.000,   1,1.0000
  3303,'1 ',     2.000,     1.117,     1.117,    -1.117,1.08000,     0,     2.540, 3.00000E-3, 1.31000E-1, 0.00000E+0, 0.00000E+0,1.00000,1,  100.0,     2.287,     0.000,   1,1.0000
  3304,'2 ',     6.000,     2.591,     5.080,    -1.270,1.08000,     0,     8.450, 3.00000E-3, 1.31000E-1, 0.00000E+0, 0.00000E+0,1.00000,1,  100.0,     6.760,     0.000,   1,1.0000
  4031,'1 ',    39.900,    -3.337,    22.000,   -12.000,1.03000,     0,    60.000, 7.50000E-3, 1.70000E-1, 0.00000E+0, 0.00000E+0,1.00000,1,  100.0,    54.000,     0.000,   1,1.0000
  4032,'1 ',    39.600,    -3.347,    22.000,   -12.000,1.03000,     0,    60.000, 7.50000E-3, 1.70000E-1, 0.00000E+0, 0.00000E+0,1.00000,1,  100.0,    54.000,     0.000,   1,1.0000
  4033,'1 ',    40.000,    -3.334,    22.000,   -12.000,1.03000,     0,    60.000, 7.50000E-3, 1.70000E-1, 0.00000E+0, 0.00000E+0,1.00000,1,  100.0,    54.000,     0.000,   1,1.0000
  4061,'1 ',    28.900,     3.246,    18.700,   -16.000,1.04000,     0,    37.500, 3.00000E-3, 2.07300E-1, 0.00000E+0, 0.00000E+0,1.00000,1,  100.0,    30.000,     0.000,   1,1.0000
  4062,'1 ',    28.800,     3.238,    18.700,   -16.000,1.04000,     0,    37.500, 3.00000E-3, 2.07300E-1, 0.00000E+0, 0.00000E+0,1.00000,1,  100.0,    30.000,     0.000,   1,1.0000
  4101,'1 ',     9.900,     2.014,    16.800,     0.000,1.00000,     0,    28.000, 2.90000E-3, 1.90000E-1, 0.00000E+0, 0.00000E+0,1.00000,1,  100.0,    22.400,     0.000,   1,1.0000
  4105,'1 ',     8.300,     0.000,     8.000,     0.000,1.04000,     0,    10.000, 2.90000E-3, 1.90000E-1, 0.00000E+0, 0.00000E+0,1.00000,1,  100.0,    10.000,     0.000,   1,1.0000
  5061,'1 ',    94.200,    -1.114,    70.000,   -70.000,1.03000,     0,   127.800, 2.30000E-3, 2.00000E-1, 0.00000E+0, 0.00000E+0,1.00000,1,  100.0,   115.000,     0.000,   1,1.0000
  5062,'1 ',    94.200,    -1.098,    70.000,   -70.000,1.03000,     0,   127.800, 2.30000E-3, 2.00000E-1, 0.00000E+0, 0.00000E+0,1.00000,1,  100.0,   115.000,     0.000,   1,1.0000
  5063,'1 ',    94.200,    -1.100,    70.000,   -70.000,1.03000,     0,   127.800, 2.30000E-3, 2.00000E-1, 0.00000E+0, 0.00000E+0,1.00000,1,  100.0,   115.000,     0.000,   1,1.0000
  5064,'1 ',    94.200,    -1.109,    70.000,   -70.000,1.03000,     0,   127.800, 2.30000E-3, 2.00000E-1, 0.00000E+0, 0.00000E+0,1.00000,1,  100.0,   115.000,     0.000,   1,1.0000
  5065,'1 ',    94.200,    -1.111,    70.000,   -70.000,1.03000,     0,   127.800, 2.30000E-3, 2.00000E-1, 0.00000E+0, 0.00000E+0,1.00000,1,  100.0,   115.000,     0.000,   1,1.0000
  5066,'1 ',    94.200,    -1.102,    70.000,   -70.000,1.03000,     0,   127.800, 2.30000E-3, 2.00000E-1, 0.00000E+0, 0.00000E+0,1.00000,1,  100.0,   115.000,     0.000,   1,1.0000
  5105,'1 ',     6.400,     0.000,     3.100,     0.000,1.03000,     0,     7.500, 2.90000E-3, 1.90000E-1, 0.00000E+0, 0.00000E+0,1.00000,1,  100.0,     7.300,     0.000,   1,1.0000
  5106,'1 ',     3.300,     0.127,     1.650,     0.000,1.03000,     0,     3.800, 2.90000E-3, 1.90000E-1, 0.00000E+0, 0.00000E+0,1.00000,1,  100.0,     6.500,     0.000,   1,1.0000
  5201,'1 ',     7.100,    -2.000,     6.000,    -2.000,1.01000,     0,    10.000, 3.00000E-3, 2.00000E-1, 0.00000E+0, 0.00000E+0,1.00000,1,  100.0,     8.450,     0.000,   1,1.0000
  5202,'1 ',    18.200,    -2.000,     6.000,    -2.000,1.01000,     0,    24.000, 3.00000E-3, 2.00000E-1, 0.00000E+0, 0.00000E+0,1.00000,1,  100.0,    21.000,     0.000,   1,1.0000
0 / END OF GENERATOR DATA, BEGIN BRANCH DATA
   801,  5026,'1 ', 6.42944E-2, 1.64083E-1,   0.00197,   54.00,  100.00,    0.00,  0.00000,  0.00000,  0.00000,  0.00000,1,2,   0.00,   1,1.0000
   801,  5090,'1 ', 1.15565E-3, 6.36108E-3,   0.00383,   25.50,    0.00,    0.00,  0.00000,  0.00000,  0.00000,  0.00000,1,1,   0.00,   1,1.0000
  1009,  1014,'1 ', 6.68503E-4, 2.22133E-3,   0.00222,   60.00,    0.00,    0.00,  0.00000,  0.00000,  0.00000,  0.00000,1,1,   0.00,   1,1.0000
  1009,  1083,'1 ', 1.31220E-1, 2.34062E-1,   0.00362,   47.00,  100.00,    0.00,  0.00000,  0.00000,  0.00000,  0.00000,1,1,   0.00,   1,1.0000
  1010,  1026,'1 ', 2.50700E-3, 3.10980E-2,   0.04715,  560.00,  600.00,    0.00,  0.00000,  0.00000,  0.00000,  0.00000,1,1,   0.00,   1,1.0000
  1010,  1050,'1 ', 5.80000E-4, 8.76000E-3,   0.02097,  943.00,  600.00,    0.00,  0.00000,  0.00000,  0.00000,  0.00000,1,2,   0.00,   1,1.0000
  1010,  1100,'1 ', 8.55352E-3, 5.48781E-2,   0.07804,  317.00,  360.00,    0.00,  0.00000,  0.00000,  0.00000,  0.00000,1,1,   0.00,   1,1.0000
  1010,  1140,'1 ', 1.29700E-2, 7.75200E-2,   0.11066,  304.00,  730.00,    0.00,  0.00000,  0.00000,  0.00000,  0.00000,1,1,   0.00,   1,1.0000
  1010,  2090,'1 ', 4.36966E-3, 6.63700E-2,   0.15888,  943.00, 1600.00,    0.00,  0.00000,  0.00000,  0.00000,  0.00000,1,1,   0.00,   1,1.0000
  1014,  1017,'1 ', 0.00000E+0, 1.00000E-4,   0.00000, 9999.00, 9999.00,    0.00,  0.00000,  0.00000,  0.00000,  0.00000,1,1,   0.00,   1,1.0000
  1017,  1080,'1 ', 2.15785E-1, 4.15994E-1,   0.00550,   47.00,    0.00,    0.00,  0.00000,  0.00000,  0.00000,  0.00000,1,1,   0.00,   1,1.0000
  1020,  1026,'1 ', 0.00000E+0, 1.00000E-4,   0.00000,    0.00,    0.00,    0.00,  0.00000,  0.00000,  0.00000,  0.00000,1,1,   0.00,   1,1.0000
  1024,  5040,'1 ', 3.34104E-2, 1.78644E-1,   0.03933,   85.00,  224.00,    0.00,  0.00000,  0.00000,  0.00000,  0.00000,1,2,   0.00,   1,1.0000
  1026,  1030,'1 ', 7.90000E-4, 7.66000E-3,   0.01129,  415.00,  600.00,    0.00,  0.00000,  0.00000,  0.00000,  0.00000,1,2,   0.00,   1,1.0000
  1026,  1040,'1 ', 1.16000E-3, 5.38746E-3,   0.00719,  294.00,  360.00,    0.00,  0.00000,  0.00000,  0.00000,  0.00000,1,2,   0.00,   1,1.0000
  1030,  1065,'1 ', 9.00000E-4, 8.68515E-3,   0.01280,  415.00,  600.00,    0.00,  0.00000,  0.00000,  0.00000,  0.00000,1,1,   0.00,   1,1.0000
  1050,  1065,'1 ', 9.00000E-4, 8.68515E-3,   0.01280,  600.00,    0.00,    0.00,  0.00000,  0.00000,  0.00000,  0.00000,1,2,   0.00,   1,1.0000
  1050,  2100,'1 ', 1.12100E-2, 1.08319E-1,   0.15962,  415.00,  600.00,    0.00,  0.00000,  0.00000,  0.00000,  0.00000,1,1,   0.00,   1,1.0000
  1050,  2100,'2 ', 5.74000E-3, 8.19000E-2,   0.20218,  943.00, 1600.00,    0.00,  0.00000,  0.00000,  0.00000,  0.00000,1,2,   0.00,   1,1.0000
  1060,  1065,'1 ', 1.50000E-3, 1.42100E-2,   0.02098,  100.00,    0.00,    0.00,  0.00000,  0.00000,  0.00000,  0.00000,1,2,   0.00,   1,1.0000
  1079,  1082,'1 ', 1.66290E-3, 5.52555E-3,   0.00553,   60.00,    0.00,    0.00,  0.00000,  0.00000,  0.00000,  0.00000,1,1,   0.00,   1,1.0000
  1079,  1084,'1 ', 1.64359E-1, 2.95973E-1,   0.00423,   37.00,    0.00,    0.00,  0.00000,  0.00000,  0.00000,  0.00000,1,2,   0.00,   1,1.0000
  1080,  1082,'1 ', 2.32310E-2, 3.47090E-2,   0.03738,   48.00,    0.00,    0.00,  0.00000,  0.00000,  0.00000,  0.00000,1,1,   0.00,   1,1.0000
  1080,  1089,'1 ', 4.90710E-2, 2.03712E-1,   0.00268,   55.00,  100.00,    0.00,  0.00000,  0.00000,  0.00000,  0.00000,1,1,   0.00,   1,1.0000
  1081,  1083,'1 ', 1.83838E-4, 6.10865E-4,   0.00061,   60.00,    0.00,    0.00,  0.00000,  0.00000,  0.00000,  0.00000,1,2,   0.00,   1,1.0000
  1081,  1084,'1 ', 3.40220E-4, 1.13050E-3,   0.00113,   60.00,    0.00,    0.00,  0.00000,  0.00000,  0.00000,  0.00000,1,2,   0.00,   1,1.0000
  1089,  1090,'1 ', 1.55188E-4, 5.15665E-4,   0.00052,   60.00,    0.00,    0.00,  0.00000,  0.00000,  0.00000,  0.00000,1,1,   0.00,   1,1.0000
  1091,  1093,'2 ', 3.10100E-3, 3.53000E-2,   0.00382,   34.00,   41.00,    0.00,  0.00000,  0.00000,  0.00000,  0.00000,1,1,   0.00,   1,1.0000
  1091,  1096,'1 ', 8.22773E-2, 3.55413E-2,   0.00163,   10.00,    0.00,    0.00,  0.00000,  0.00000,  0.00000,  0.00000,1,2,   0.00,   1,1.0000
  1092,  1094,'2 ', 8.86000E-4, 1.00900E-2,   0.00109,   34.00,   41.00,    0.00,  0.00000,  0.00000,  0.00000,  0.00000,1,2,   0.00,   1,1.0000
  1092,  1095,'1 ', 5.07000E-4, 4.35700E-3,   0.00022,   23.00,   27.00,    0.00,  0.00000,  0.00000,  0.00000,  0.00000,1,2,   0.00,   1,1.0000
  1092,  1097,'1 ', 3.53168E-2, 8.48143E-3,   0.00029,   10.00,    0.00,    0.00,  0.00000,  0.00000,  0.00000,  0.00000,1,2,   0.00,   1,1.0000
  1092,  1098,'1 ', 1.90100E-3, 1.63400E-2,   0.00082,   23.00,   27.00,    0.00,  0.00000,  0.00000,  0.00000,  0.00000,1,2,   0.00,   1,1.0000
  1093,  1094,'2 ', 1.94491E-2, 1.34826E-1,   0.01099,   34.00,    0.00,    0.00,  0.00000,  0.00000,  0.00000,  0.00000,1,1,   0.00,   1,1.0000
  1096,  1097,'1 ', 4.36100E-1, 1.60700E-1,   0.00556,   14.00,    0.00,    0.00,  0.00000,  0.00000,  0.00000,  0.00000,1,1,   0.00,   1,1.0000
  1100,  2010,'1 ', 5.08000E-3, 3.26009E-2,   0.04636,  317.00,  360.00,    0.00,  0.00000,  0.00000,  0.00000,  0.00000,1,1,   0.00,   1,1.0000
  1110,  2011,'1 ', 4.24100E-2, 1.09901E-1,   0.02014,  100.00,  135.00,    0.00,  0.00000,  0.00000,  0.00000,  0.00000,1,2,   0.00,   1,1.0000
  1114,  1130,'2 ', 1.93000E-3, 4.32897E-3,   0.00007,   70.00,   73.50,   77.00,  0.00000,  0.00000,  0.00000,  0.00000,1,2,   0.00,   1,1.0000
  1120,  1130,'1 ', 1.36796E-2, 3.56961E-2,   0.00371,   53.00,  135.00,    0.00,  0.00000,  0.00000,  0.00000,  0.00000,1,1,   0.00,   1,1.0000
  1130,  1136,'1 ', 7.54712E-2, 1.47155E-1,   0.00190,   47.00,    0.00,    0.00,  0.00000,  0.00000,  0.00000,  0.00000,1,1,   0.00,   1,1.0000
  1130,  1150,'1 ', 8.62174E-2, 1.66174E-1,   0.00202,   37.00,    0.00,    0.00,  0.00000,  0.00000,  0.00000,  0.00000,1,1,   0.00,   1,1.0000
  1136,  1149,'1 ', 9.36574E-2, 1.82615E-1,   0.00236,   47.00,    0.00,    0.00,  0.00000,  0.00000,  0.00000,  0.00000,1,1,   0.00,   1,1.0000
  1139,  1140,'1 ', 0.00000E+0, 1.00000E-4,   0.00000,    0.00,    0.00,    0.00,  0.00000,  0.00000,  0.00000,  0.00000,1,2,   0.00,   1,1.0000
  1139,  2010,'1 ', 2.63000E-3, 1.57400E-2,   0.02247,  380.00,  730.00,    0.00,  0.00000,  0.00000,  0.00000,  0.00000,1,1,   0.00,   1,1.0000
  1200,  1210,'1 ', 6.80000E-4, 1.91000E-3,   0.02173,  110.00,  135.00,    0.00,  0.00000,  0.00000,  0.00000,  0.00000,1,1,   0.00,   1,1.0000
  1200,  2011,'1 ', 6.70000E-3, 1.91500E-2,   0.19623,  140.00,  140.00,    0.00,  0.00000,  0.00000,  0.00000,  0.00000,1,1,   0.00,   1,1.0000
  1210,  1220,'1 ', 8.30000E-3, 3.77200E-2,   0.00758,  110.00,  135.00,    0.00,  0.00000,  0.00000,  0.00000,  0.00000,1,1,   0.00,   1,1.0000
  1220,  2030,'1 ', 3.52000E-3, 9.96000E-3,   0.10204,  110.00,  135.00,    0.00,  0.00000,  0.00000,  0.00000,  0.00000,1,1,   0.00,   1,1.0000
  2010,  2050,'1 ', 2.15000E-3, 1.32849E-2,   0.02013,  317.00,  360.00,    0.00,  0.00000,  0.00000,  0.00000,  0.00000,1,1,   0.00,   1,1.0000
  2010,  2050,'2 ', 2.15000E-3, 1.32849E-2,   0.02013,  317.00,  360.00,    0.00,  0.00000,  0.00000,  0.00000,  0.00000,1,1,   0.00,   1,1.0000
  2010,  2100,'1 ', 8.80000E-3, 5.33000E-2,   0.07542,  304.00,  360.00,    0.00,  0.00000,  0.00000,  0.00000,  0.00000,1,1,   0.00,   1,1.0000
  2011,  2018,'2 ', 1.90000E-3, 4.20000E-3,   0.01095,  135.00,  100.00,    0.00,  0.00000,  0.00000,  0.00000,  0.00000,1,2,   0.00,   1,1.0000
  2011,  2030,'1 ', 4.60000E-3, 1.70000E-2,   0.00330,  100.00,  135.00,    0.00,  0.00000,  0.00000,  0.00000,  0.00000,1,1,   0.00,   1,1.0000
  2017,  2240,'1 ', 5.00000E-4, 2.30000E-3,   0.03250,  100.00,  135.00,    0.00,  0.00000,  0.00000,  0.00000,  0.00000,1,1,   0.00,   1,1.0000
  2018,  2240,'2 ', 1.65300E-3, 3.74200E-3,   0.05428,  183.00,  317.00,    0.00,  0.00000,  0.00000,  0.00000,  0.00000,1,1,   0.00,   1,1.0000
  2022,  2050,'1 ', 4.40000E-4, 2.71000E-3,   0.00411,  480.00,  480.00,    0.00,  0.00000,  0.00000,  0.00000,  0.00000,1,2,   0.00,   1,1.0000
  2023,  2050,'1 ', 4.40000E-4, 2.71000E-3,   0.00411,  480.00,  480.00,    0.00,  0.00000,  0.00000,  0.00000,  0.00000,1,2,   0.00,   1,1.0000
  2030,  2220,'1 ', 4.34000E-3, 5.62000E-3,   0.10685,  183.00,   89.80,    0.00,  0.00000,  0.00000,  0.00000,  0.00000,1,2,   0.00,   1,1.0000
  2050,  2090,'1 ', 2.25000E-3, 2.17400E-2,   0.03184,  415.00,  360.00,    0.00,  0.00000,  0.00000,  0.00000,  0.00000,1,1,   0.00,   1,1.0000
  2051,  2061,'1 ', 1.10000E-3, 4.60000E-3,   0.00100,  100.00,  224.00,    0.00,  0.00000,  0.00000,  0.00000,  0.00000,1,1,   0.00,   1,1.0000
  2051,  2260,'1 ', 4.65000E-3, 1.77600E-2,   0.00547,  132.00,  100.00,    0.00,  0.00000,  0.00000,  0.00000,  0.00000,1,2,   0.00,   1,1.0000
  2051,  2300,'1 ', 1.56000E-2, 7.40000E-2,   0.02190,  157.00,  173.00,  188.00,  0.00000,  0.00000,  0.00000,  0.00000,1,1,   0.00,   1,1.0000
  2100,  2120,'1 ', 5.63200E-4, 3.38800E-3,   0.00468,  345.00,  600.00,    0.00,  0.00000,  0.00000,  0.00000,  0.00000,1,1,   0.00,   1,1.0000
  2100,  2140,'1 ', 6.70000E-4, 4.00000E-3,   0.00562,  304.00,  600.00,    0.00,  0.00000,  0.00000,  0.00000,  0.00000,1,1,   0.00,   1,1.0000
  2100,  2161,'2 ', 6.10000E-4, 3.67000E-3,   0.00507,  345.00,  600.00,    0.00,  0.00000,  0.00000,  0.00000,  0.00000,1,1,   0.00,   1,1.0000
  2101,  3120,'1 ', 1.02300E-2, 4.66700E-2,   0.00996,  150.00,  224.00,    0.00,  0.00000,  0.00000,  0.00000,  0.00000,1,1,   0.00,   1,1.0000
  2105,  2109,'1 ', 5.05000E-2, 4.91860E-2,   0.00432,  100.00,    0.00,    0.00,  0.00000,  0.00000,  0.00000,  0.00000,1,1,   0.00,   1,1.0000
  2107,  2110,'1 ', 7.35900E-2, 7.99300E-2,   0.04433,   34.00,   50.00,    0.00,  0.00000,  0.00000,  0.00000,  0.00000,1,1,   0.00,   1,1.0000
  2120,  2122,'1 ', 7.10081E-7, 4.24651E-6,   0.00001,    0.00,    0.00,    0.00,  0.00000,  0.00000,  0.00000,  0.00000,1,2,   0.00,   1,1.0000
  2120,  2160,'1 ', 7.68000E-5, 4.62000E-4,   0.00064,  345.00,  600.00,    0.00,  0.00000,  0.00000,  0.00000,  0.00000,1,1,   0.00,   1,1.0000
  2160,  2161,'1 ', 0.00000E+0, 1.00000E-4,   0.00000,    0.00,    0.00,    0.00,  0.00000,  0.00000,  0.00000,  0.00000,1,1,   0.00,   1,1.0000
  2200,  2210,'1 ', 1.27000E-3, 1.21300E-2,   0.02452,  117.00,   57.20,    0.00,  0.00000,  0.00000,  0.00000,  0.00000,1,1,   0.00,   1,1.0000
  2200,  2220,'1 ', 6.30000E-4, 1.33000E-3,   0.01478,  100.00,  135.00,    0.00,  0.00000,  0.00000,  0.00000,  0.00000,1,2,   0.00,   1,1.0000
  2200,  2240,'1 ', 2.59000E-3, 4.33000E-3,   0.04978,  117.00,   57.20,    0.00,  0.00000,  0.00000,  0.00000,  0.00000,1,1,   0.00,   1,1.0000
  2201,  2231,'1 ', 1.71803E-1, 2.26855E-1,   0.00054,   11.10,    0.00,    0.00,  0.00000,  0.00000,  0.00000,  0.00000,1,1,   0.00,   1,1.0000
  2210,  2260,'2 ', 4.22000E-3, 5.22000E-3,   0.10838,  142.00,   69.50,    0.00,  0.00000,  0.00000,  0.00000,  0.00000,1,1,   0.00,   1,1.0000
  2231,  2241,'2 ', 8.73550E-2, 1.11903E-1,   0.00017,   18.50,    0.00,    0.00,  0.00000,  0.00000,  0.00000,  0.00000,1,2,   0.00,   1,1.0000
  2241,  2251,'1 ', 1.65651E-1, 1.12390E-1,   0.00026,   20.00,    0.00,    0.00,  0.00000,  0.00000,  0.00000,  0.00000,1,2,   0.00,   1,1.0000
  2251,  2261,'3 ', 2.29478E-1, 3.03011E-1,   0.00072,    9.50,    0.00,    0.00,  0.00000,  0.00000,  0.00000,  0.00000,1,1,   0.00,   1,1.0000
  2300,  2304,'1 ', 9.70500E-4, 5.40300E-3,   0.13524,  200.00,    0.00,    0.00,  0.00000,  0.00000,  0.00000,  0.00000,1,2,   0.00,   1,1.0000
  2300,  2320,'1 ', 2.00000E-3, 1.19000E-2,   0.00418,  194.00,  213.00,  233.00,  0.00000,  0.00000,  0.00000,  0.00000,1,2,   0.00,   1,1.0000
  2301,  2320,'1 ', 3.30000E-3, 1.57000E-2,   0.00168,  157.00,  135.00,    0.00,  0.00000,  0.00000,  0.00000,  0.00000,1,1,   0.00,   1,1.0000
  2303,  2350,'1 ', 2.75510E-2, 5.36480E-2,   0.00117,   17.00,    0.00,    0.00,  0.00000,  0.00000,  0.00000,  0.00000,1,2,   0.00,   1,1.0000
  2303,  2350,'2 ', 2.75510E-2, 5.36480E-2,   0.00117,   17.00,    0.00,    0.00,  0.00000,  0.00000,  0.00000,  0.00000,1,1,   0.00,   1,1.0000
  2320,  2330,'1 ', 5.50000E-3, 3.54000E-2,   0.00648,  194.00,  213.00,  233.00,  0.00000,  0.00000,  0.00000,  0.00000,1,1,   0.00,   1,1.0000
  3120,  4010,'1 ', 3.73100E-2, 1.78320E-1,   0.03853,  150.00,  224.00,    0.00,  0.00000,  0.00000,  0.00000,  0.00000,1,1,   0.00,   1,1.0000
  3121,  3130,'1 ', 3.00159E-1, 5.78654E-1,   0.00765,   47.00,   50.00,    0.00,  0.00000,  0.00000,  0.00000,  0.00000,1,1,   0.00,   1,1.0000
  3121,  3170,'1 ', 9.72002E-3, 1.87385E-2,   0.00025,   47.00,   50.00,    0.00,  0.00000,  0.00000,  0.00000,  0.00000,1,1,   0.00,   1,1.0000
  3130,  3140,'1 ', 2.37329E-1, 4.57528E-1,   0.00604,   47.00,   50.00,    0.00,  0.00000,  0.00000,  0.00000,  0.00000,1,1,   0.00,   1,1.0000
  3130,  3150,'1 ', 2.42123E-1, 2.45557E-1,   0.00289,   29.00,   30.00,    0.00,  0.00000,  0.00000,  0.00000,  0.00000,1,1,   0.00,   1,1.0000
  3150,  3160,'1 ', 2.07383E-1, 3.42179E-1,   0.00425,   33.00,    0.00,    0.00,  0.00000,  0.00000,  0.00000,  0.00000,1,1,   0.00,   1,1.0000
  3200,  3210,'1 ', 2.38500E-2, 1.08890E-1,   0.02324,  100.00,  224.00,    0.00,  0.00000,  0.00000,  0.00000,  0.00000,1,1,   0.00,   1,1.0000
  3200,  4010,'1 ', 1.47200E-2, 7.72700E-2,   0.01678,  100.00,  224.00,    0.00,  0.00000,  0.00000,  0.00000,  0.00000,1,2,   0.00,   1,1.0000
  3210,  3300,'1 ', 4.01900E-2, 1.88610E-1,   0.04042,  100.00,  224.00,    0.00,  0.00000,  0.00000,  0.00000,  0.00000,1,1,   0.00,   1,1.0000
  3212,  3390,'1 ', 8.38600E-1, 1.11696E+0,   0.00000,   50.00,   60.00,    0.00,  0.00000,  0.00000,  0.00000,  0.00000,1,1,   0.00,   1,1.0000
  3301,  3310,'1 ', 1.28330E-1, 2.87190E-1,   0.00422,   50.00,  100.00,    0.00,  0.00000,  0.00000,  0.00000,  0.00000,1,1,   0.00,   1,1.0000
  3301,  3340,'1 ', 2.60124E-1, 3.88636E-1,   0.00422,   50.00,  100.00,    0.00,  0.00000,  0.00000,  0.00000,  0.00000,1,1,   0.00,   1,1.0000
  3303,  3304,'1 ', 0.00000E+0, 1.00000E-4,   0.00000,    0.00,    0.00,    0.00,  0.00000,  0.00000,  0.00000,  0.00000,1,1,   0.00,   1,1.0000
  3305,  3341,'1 ', 5.90310E-1, 5.83770E-1,   0.00000,   50.00,   60.00,    0.00,  0.00000,  0.00000,  0.00000,  0.00000,1,1,   0.00,   1,1.0000
  3310,  3320,'1 ', 1.13400E-1, 2.37100E-1,   0.00340,   50.00,  100.00,    0.00,  0.00000,  0.00000,  0.00000,  0.00000,1,1,   0.00,   1,1.0000
  3310,  3330,'1 ', 1.13400E-1, 2.37100E-1,   0.00340,   50.00,  100.00,    0.00,  0.00000,  0.00000,  0.00000,  0.00000,1,1,   0.00,   1,1.0000
  3311,  3380,'1 ', 6.40710E-1, 6.50020E-1,   0.00000,   50.00,   60.00,    0.00,  0.00000,  0.00000,  0.00000,  0.00000,1,1,   0.00,   1,1.0000
  3313,  3340,'1 ', 3.84360E-1, 5.07900E-1,   0.00000,   50.00,   60.00,    0.00,  0.00000,  0.00000,  0.00000,  0.00000,1,1,   0.00,   1,1.0000
  3320,  3330,'1 ', 6.71630E-2, 3.80799E-2,   0.02956,   28.50,    0.00,    0.00,  0.00000,  0.00000,  0.00000,  0.00000,1,2,   0.00,   1,1.0000
  3333,  3381,'1 ', 0.00000E+0, 1.00000E-4,   0.00000,    0.00,    0.00,    0.00,  0.00000,  0.00000,  0.00000,  0.00000,1,2,   0.00,   1,1.0000
  3341,  3342,'1 ', 3.72660E-1, 3.86220E-1,   0.00000,   50.00,   60.00,    0.00,  0.00000,  0.00000,  0.00000,  0.00000,1,1,   0.00,   1,1.0000
  3342,  3361,'1 ', 6.60460E-1, 7.05400E-1,   0.00000,   50.00,   60.00,    0.00,  0.00000,  0.00000,  0.00000,  0.00000,1,2,   0.00,   1,1.0000
  3370,  3371,'1 ', 0.00000E+0, 1.00000E-4,   0.00000,    0.00,    0.00,    0.00,  0.00000,  0.00000,  0.00000,  0.00000,1,2,   0.00,   1,1.0000
  4010,  4020,'1 ', 3.82200E-2, 1.69410E-1,   0.03624,  150.00,  224.00,    0.00,  0.00000,  0.00000,  0.00000,  0.00000,1,1,   0.00,   1,1.0000
  4020,  4030,'1 ', 1.57200E-2, 7.42400E-2,   0.01639,  150.00,  224.00,    0.00,  0.00000,  0.00000,  0.00000,  0.00000,1,1,   0.00,   1,1.0000
  4030,  4036,'1 ', 0.00000E+0, 1.00000E-4,   0.00000,    0.00,    0.00,    0.00,  0.00000,  0.00000,  0.00000,  0.00000,1,1,   0.00,   1,1.0000
  4036,  4040,'1 ', 1.45800E-2, 7.51500E-2,   0.01600,  100.00,  224.00,    0.00,  0.00000,  0.00000,  0.00000,  0.00000,1,1,   0.00,   1,1.0000
  4040,  4050,'1 ', 8.58800E-2, 2.14050E-1,   0.04141,   80.00,  120.00,    0.00,  0.00000,  0.00000,  0.00000,  0.00000,1,1,   0.00,   1,1.0000
  4041,  4045,'1 ', 1.69350E-1, 1.89260E-1,   0.00295,   24.00,    0.00,    0.00,  0.00000,  0.00000,  0.00000,  0.00000,1,1,  21.83,   1,1.0000
  4050,  4056,'1 ', 7.60000E-4, 2.16000E-3,   0.02216,  150.00,  150.00,    0.00,  0.00000,  0.00000,  0.00000,  0.00000,1,1,   0.00,   1,1.0000
  4050,  4059,'1 ', 0.00000E+0, 1.00000E-4,   0.00000,    0.00,    0.00,    0.00,  0.00000,  0.00000,  0.00000,  0.00000,1,1,   0.00,   1,1.0000
  4050,  4065,'1 ', 4.31600E-2, 1.91910E-1,   0.04080,  100.00,  224.00,    0.00,  0.00000,  0.00000,  0.00000,  0.00000,1,1,   0.00,   1,1.0000
  4051,  4058,'1 ', 8.75652E-2, 3.68054E-1,   0.00484,   56.00,    0.00,    0.00,  0.00000,  0.00000,  0.00000,  0.00000,1,1,  39.15,   1,1.0000
  4051,  4100,'1 ', 2.79632E-1, 6.13908E-1,   0.00640,   37.00,    0.00,    0.00,  0.00000,  0.00000,  0.00000,  0.00000,1,2,  58.36,   1,1.0000
  4060,  4065,'1 ', 0.00000E+0, 1.00000E-4,   0.00000,    0.00,    0.00,    0.00,  0.00000,  0.00000,  0.00000,  0.00000,1,1,   0.00,   1,1.0000
  4060,  5051,'1 ', 6.48500E-2, 2.92930E-1,   0.06014,  155.00,  224.00,    0.00,  0.00000,  0.00000,  0.00000,  0.00000,1,1,   0.00,   1,1.0000
  4100,  4110,'1 ', 1.09159E-1, 3.08308E-1,   0.00380,   54.00,  100.00,    0.00,  0.00000,  0.00000,  0.00000,  0.00000,1,1,   0.00,   1,1.0000
  4102,  4108,'1 ', 8.06488E-1, 9.56212E-1,   0.00081,   30.00,  100.00,    0.00,  0.00000,  0.00000,  0.00000,  0.00000,1,1,  25.96,   1,1.0000
  4110,  4120,'1 ', 1.63739E-1, 4.62463E-1,   0.00570,   54.00,  100.00,    0.00,  0.00000,  0.00000,  0.00000,  0.00000,1,1,   0.00,   1,1.0000
  4110,  4121,'1 ', 6.26850E-2, 3.55410E-2,   0.02759,   28.50,    0.00,    0.00,  0.00000,  0.00000,  0.00000,  0.00000,1,2,   0.00,   1,1.0000
  5010,  5011,'1 ', 8.63000E-3, 1.29200E-2,   0.12262,  105.00,   32.00,    0.00,  0.00000,  0.00000,  0.00000,  0.00000,1,2,   0.00,   1,1.0000
  5010,  5016,'1 ', 2.69890E-2, 6.75510E-2,   0.01300,   85.00,  224.00,    0.00,  0.00000,  0.00000,  0.00000,  0.00000,1,1,   0.00,   1,1.0000
  5010,  5020,'1 ', 2.50500E-2, 1.15830E-1,   0.02475,   85.00,  224.00,    0.00,  0.00000,  0.00000,  0.00000,  0.00000,1,1,   0.00,   1,1.0000
...